# C, Graphene, HEX (P6/mmm) 2D (Monolayer), 2dm-3993

data_findsym-output

_symmetry_space_group_name_H-M 'P 6/m 2/m 2/m'
_symmetry_Int_Tables_number 191

_cell_length_a       2.46500
_cell_length_b       2.46500
_cell_length_c      19.99700
_cell_angle_alpha   90.00000
_cell_angle_beta    90.00000
_cell_angle_gamma  120.00000

loop_
_space_group_symop_operation_xyz
x,y,z
x-y,x,z
-y,x-y,z
-x,-y,z
-x+y,-x,z
y,-x+y,z
x-y,-y,-z
x,x-y,-z
y,x,-z
-x+y,y,-z
-x,-x+y,-z
-y,-x,-z
-x,-y,-z
-x+y,-x,-z
y,-x+y,-z
x,y,-z
x-y,x,-z
-y,x-y,-z
-x+y,y,z
-x,-x+y,z
-y,-x,z
x-y,-y,z
x,x-y,z
y,x,z

loop_
_atom_site_label
_atom_site_type_symbol
_atom_site_fract_x
_atom_site_fract_y
_atom_site_fract_z
_atom_site_occupancy
C1  C    0.33333   0.66667   0.50000   1.00000

# end_of_file
